version 2
1
9
.tran 1s 5s{return}{return}{return}.kicad adjustpaths{return}.save all{return}.probe alli
2
1
V(/AR1/ENV_OUT)
 
1
V(/AR1/GATE_IN)
 
